/*--------------------------------*- C++ -*----------------------------------*\
  =========                 |
  \\      /  F ield         | OpenFOAM: The Open Source CFD Toolbox
   \\    /   O peration     | Website:  https://openfoam.org
    \\  /    A nd           | Version:  7
     \\/     M anipulation  |
\*---------------------------------------------------------------------------*/
FoamFile
{
    version     2.0;
    format      ascii;
    class       dictionary;
    object      blockMeshDict;
}
// * * * * * * * * * * * * * * * * * * * * * * * * * * * * * * * * * * * * * //

convertToMeters 1;

vertices
(

    (-0.1335 0 0)
    (0.1335 0 0)
    (0.1335 1 0)
    (-0.1335 1 0)
    (-0.1335 0 2.5)
    (0.1335 0 2.5)
    (0.1335 1 2.5)
    (-0.1335 1 2.5)
    (-0.3335 0 2.9)
    (0.3335 0 2.9)
    (0.3335 1 2.9)
    (-0.3335 1 2.9)  
    (-0.3335 0 4.2)
    (0.3335 0 4.2)
    (0.3335 1 4.2)
    (-0.3335 1 4.2)
    
);


blocks
(
    hex (0 1 2 3 4 5 6 7) //fluidisedBed
    (14 50 125)
    simpleGrading (1 1 1)

    hex (4 5 6 7 8 9 10 11) //freeboardLower
    (14 50 125)
    simpleGrading (1 1 1)

    hex (8 9 10 11 12 13 14 15) //freeboardUpper
    (14 50 125)
    simpleGrading (1 1 1)
);

edges
(
);

boundary
(
    inlet
    {
        type patch;
        faces
        (
            (0 3 2 1)
        );
    }
    outlet
    {
        type patch;
        faces
        (
            (12 13 14 15)
        );
    }
    bedWall
    {
        type wall;
        faces
        (
            (1 2 6 5)
            (0 4 7 3)
            (6 2 3 7)
            (0 1 5 4)
        );
    }
    freeboardLowerWall
    {
        type wall;
        faces
        (
            (5 6 10 9)
            (10 6 7 11)
            (7 4 8 11)
            (4 5 9 8)
        );
    }
    freeboardUpperWall
    {
        type wall;
        faces
        (
            (12 8 9 13)
            (11 15 14 10)
            (8 12 15 11)
            (9 10 14 13)
        );
    }
);

// ************************************************************************* //
